
 OpenBabel10272211213D

 56 57  0  0  1  0  0  0  0  0999 V2000
   -4.2415   -3.4510    4.1896 O   0  0  0  0  0  0  0  0  0  0  0  0
   -3.5292   -3.6300    5.1777 C   0  0  0  0  0  0  0  0  0  0  0  0
   -2.1740   -4.3023    5.0502 C   0  0  0  0  0  0  0  0  0  0  0  0
   -1.1370   -3.4505    5.5268 O   0  0  0  0  0  0  0  0  0  0  0  0
    0.1152   -4.0028    5.5306 C   0  0  0  0  0  0  0  0  0  0  0  0
    0.5622   -4.9637    4.6218 C   0  0  0  0  0  0  0  0  0  0  0  0
    1.8667   -5.4622    4.7068 C   0  0  0  0  0  0  0  0  0  0  0  0
    2.7453   -5.0175    5.6996 C   0  0  0  0  0  0  0  0  0  0  0  0
    4.1537   -5.5475    5.8885 C   0  0  0  0  0  0  0  0  0  0  0  0
    4.7301   -6.5623    4.8705 C   0  0  2  0  0  0  0  0  0  0  0  0
    3.9370   -7.7261    4.6411 O   0  0  0  0  0  0  0  0  0  0  0  0
    3.6616   -8.5380    5.7799 C   0  0  0  0  0  0  0  0  0  0  0  0
    2.6760   -9.6075    5.3383 C   0  0  0  0  0  0  0  0  0  0  0  0
    6.2012   -6.8781    5.2404 C   0  0  0  0  0  0  0  0  0  0  0  0
    7.0199   -7.3687    4.2315 N   0  0  0  0  0  0  0  0  0  0  0  0
    6.8012   -7.3125    2.7969 C   0  0  0  0  0  0  0  0  0  0  0  0
    8.4034   -7.1825    4.5222 O   0  0  0  0  0  0  0  0  0  0  0  0
    8.9683   -8.4068    4.9760 C   0  0  0  0  0  0  0  0  0  0  0  0
    6.5982   -6.7433    6.4038 O   0  0  0  0  0  0  0  0  0  0  0  0
    2.2906   -4.0293    6.5889 C   0  0  0  0  0  0  0  0  0  0  0  0
    0.9895   -3.5226    6.4962 C   0  0  0  0  0  0  0  0  0  0  0  0
   -4.0377   -3.2415    6.5289 C   0  0  0  0  0  0  0  0  0  0  0  0
   -5.3144   -2.6620    6.6008 C   0  0  0  0  0  0  0  0  0  0  0  0
   -5.8555   -2.2865    7.8284 C   0  0  0  0  0  0  0  0  0  0  0  0
   -7.0890   -1.7262    8.0230 O   0  0  0  0  0  0  0  0  0  0  0  0
   -7.8831   -1.5160    6.8597 C   0  0  0  0  0  0  0  0  0  0  0  0
   -5.1109   -2.4866    8.9941 C   0  0  0  0  0  0  0  0  0  0  0  0
   -3.8451   -3.0617    8.9342 C   0  0  0  0  0  0  0  0  0  0  0  0
   -3.3074   -3.4471    7.7039 C   0  0  0  0  0  0  0  0  0  0  0  0
   -2.0348   -4.5156    3.9850 H   0  0  0  0  0  0  0  0  0  0  0  0
   -2.2028   -5.2470    5.6073 H   0  0  0  0  0  0  0  0  0  0  0  0
   -0.0696   -5.3357    3.8233 H   0  0  0  0  0  0  0  0  0  0  0  0
    2.1681   -6.2084    3.9786 H   0  0  0  0  0  0  0  0  0  0  0  0
    4.2131   -5.9610    6.9027 H   0  0  0  0  0  0  0  0  0  0  0  0
    4.8204   -4.6720    5.8725 H   0  0  0  0  0  0  0  0  0  0  0  0
    4.7484   -6.0258    3.9161 H   0  0  0  0  0  0  0  0  0  0  0  0
    3.2096   -7.9525    6.5857 H   0  0  0  0  0  0  0  0  0  0  0  0
    4.5835   -9.0039    6.1412 H   0  0  0  0  0  0  0  0  0  0  0  0
    1.7655   -9.1473    4.9378 H   0  0  0  0  0  0  0  0  0  0  0  0
    2.4006  -10.2640    6.1683 H   0  0  0  0  0  0  0  0  0  0  0  0
    3.1016  -10.2147    4.5325 H   0  0  0  0  0  0  0  0  0  0  0  0
    5.7513   -7.1772    2.5393 H   0  0  0  0  0  0  0  0  0  0  0  0
    7.1449   -8.2585    2.3690 H   0  0  0  0  0  0  0  0  0  0  0  0
    7.3887   -6.4936    2.3701 H   0  0  0  0  0  0  0  0  0  0  0  0
    9.9230   -8.1791    5.4589 H   0  0  0  0  0  0  0  0  0  0  0  0
    9.1590   -9.0617    4.1213 H   0  0  0  0  0  0  0  0  0  0  0  0
    8.3215   -8.9074    5.7034 H   0  0  0  0  0  0  0  0  0  0  0  0
    2.9519   -3.6483    7.3674 H   0  0  0  0  0  0  0  0  0  0  0  0
    0.6654   -2.7525    7.1950 H   0  0  0  0  0  0  0  0  0  0  0  0
   -5.8675   -2.5124    5.6797 H   0  0  0  0  0  0  0  0  0  0  0  0
   -8.8373   -1.0867    7.1775 H   0  0  0  0  0  0  0  0  0  0  0  0
   -8.0976   -2.4617    6.3501 H   0  0  0  0  0  0  0  0  0  0  0  0
   -7.4038   -0.8013    6.1821 H   0  0  0  0  0  0  0  0  0  0  0  0
   -5.5251   -2.1895    9.9551 H   0  0  0  0  0  0  0  0  0  0  0  0
   -3.2721   -3.2107    9.8488 H   0  0  0  0  0  0  0  0  0  0  0  0
   -2.3196   -3.8941    7.6967 H   0  0  0  0  0  0  0  0  0  0  0  0
  1  2  2  0  0  0  0
  2  3  1  0  0  0  0
  2 22  1  0  0  0  0
  3  4  1  0  0  0  0
  3 30  1  0  0  0  0
  3 31  1  0  0  0  0
  4  5  1  0  0  0  0
  5  6  2  0  0  0  0
  5 21  1  0  0  0  0
  6  7  1  0  0  0  0
  6 32  1  0  0  0  0
  7  8  2  0  0  0  0
  7 33  1  0  0  0  0
  8  9  1  0  0  0  0
  8 20  1  0  0  0  0
  9 34  1  0  0  0  0
  9 35  1  0  0  0  0
 10 14  1  0  0  0  0
 10 11  1  0  0  0  0
 10  9  1  0  0  0  0
 10 36  1  6  0  0  0
 11 12  1  0  0  0  0
 12 13  1  0  0  0  0
 12 37  1  0  0  0  0
 12 38  1  0  0  0  0
 13 39  1  0  0  0  0
 13 40  1  0  0  0  0
 13 41  1  0  0  0  0
 14 15  1  0  0  0  0
 14 19  2  0  0  0  0
 15 16  1  0  0  0  0
 15 17  1  0  0  0  0
 16 42  1  0  0  0  0
 16 43  1  0  0  0  0
 16 44  1  0  0  0  0
 17 18  1  0  0  0  0
 18 45  1  0  0  0  0
 18 46  1  0  0  0  0
 18 47  1  0  0  0  0
 20 21  2  0  0  0  0
 20 48  1  0  0  0  0
 21 49  1  0  0  0  0
 22 23  2  0  0  0  0
 22 29  1  0  0  0  0
 23 24  1  0  0  0  0
 23 50  1  0  0  0  0
 24 25  1  0  0  0  0
 24 27  2  0  0  0  0
 25 26  1  0  0  0  0
 26 51  1  0  0  0  0
 26 52  1  0  0  0  0
 26 53  1  0  0  0  0
 27 28  1  0  0  0  0
 27 54  1  0  0  0  0
 28 29  2  0  0  0  0
 28 55  1  0  0  0  0
 29 56  1  0  0  0  0
M  END
$$$$
